Circuit: * AD8130 SPICE Macro-model

Fatal Error: No analysis request found.
